* Qucs 25.1.0  /headless/QucsWorkspace/Ikram_prj/3_Stage_2nd_Design.sch
.SUBCKT Sub_SPfile_X3 1 2 3
R1N 1 10 -50
R1P 10 11 100
R2N 2 20 -50
R2P 20 21 100

A11 %vd(10 3) %vd(11, 12) xfer1
.model xfer1 xfer R_I=true table=[
+ 0Hz 0.00482376 0
+ 1e+08Hz 0.00482395 1.93737e-06
+ 2e+08Hz 0.00482452 3.86743e-06
+ 3e+08Hz 0.00482548 5.78289e-06
+ 4e+08Hz 0.00482681 7.67645e-06
+ 5e+08Hz 0.00482853 9.54082e-06
+ 6e+08Hz 0.00483063 1.13687e-05
+ 7e+08Hz 0.0048331 1.3153e-05
+ 8e+08Hz 0.00483596 1.48863e-05
+ 9e+08Hz 0.00483919 1.65614e-05
+ 1e+09Hz 0.0048428 1.81712e-05
+ 1.1e+09Hz 0.00484679 1.97086e-05
+ 1.2e+09Hz 0.00485114 2.11664e-05
+ 1.3e+09Hz 0.00485587 2.25375e-05
+ 1.4e+09Hz 0.00486097 2.3815e-05
+ 1.5e+09Hz 0.00486643 2.49917e-05
+ 1.6e+09Hz 0.00487226 2.60609e-05
+ 1.7e+09Hz 0.00487846 2.70156e-05
+ 1.8e+09Hz 0.00488501 2.78489e-05
+ 1.9e+09Hz 0.00489192 2.85541e-05
+ 2e+09Hz 0.00489919 2.91245e-05
+ 2.1e+09Hz 0.00490681 2.95534e-05
+ 2.2e+09Hz 0.00491478 2.98342e-05
+ 2.3e+09Hz 0.00492309 2.99605e-05
+ 2.4e+09Hz 0.00493175 2.99257e-05
+ 2.5e+09Hz 0.00494075 2.97235e-05
+ 2.6e+09Hz 0.00495008 2.93477e-05
+ 2.7e+09Hz 0.00495975 2.87919e-05
+ 2.8e+09Hz 0.00496975 2.80502e-05
+ 2.9e+09Hz 0.00498007 2.71164e-05
+ 3e+09Hz 0.00499071 2.59846e-05
+ 3.1e+09Hz 0.00500167 2.4649e-05
+ 3.2e+09Hz 0.00501294 2.31038e-05
+ 3.3e+09Hz 0.00502452 2.13433e-05
+ 3.4e+09Hz 0.0050364 1.93619e-05
+ 3.5e+09Hz 0.00504859 1.71543e-05
+ 3.6e+09Hz 0.00506107 1.4715e-05
+ 3.7e+09Hz 0.00507383 1.20388e-05
+ 3.8e+09Hz 0.00508689 9.12049e-06
+ 3.9e+09Hz 0.00510022 5.9551e-06
+ 4e+09Hz 0.00511383 2.53768e-06
+ 4.1e+09Hz 0.00512771 -1.13658e-06
+ 4.2e+09Hz 0.00514185 -5.07238e-06
+ 4.3e+09Hz 0.00515626 -9.2743e-06
+ 4.4e+09Hz 0.00517091 -1.37468e-05
+ 4.5e+09Hz 0.00518582 -1.84942e-05
+ 4.6e+09Hz 0.00520097 -2.35208e-05
+ 4.7e+09Hz 0.00521636 -2.88306e-05
+ 4.8e+09Hz 0.00523198 -3.44276e-05
+ 4.9e+09Hz 0.00524782 -4.03157e-05
+ 5e+09Hz 0.00526389 -4.64986e-05
+ 5.1e+09Hz 0.00528017 -5.29798e-05
+ 5.2e+09Hz 0.00529666 -5.97629e-05
+ 5.3e+09Hz 0.00531335 -6.68512e-05
+ 5.4e+09Hz 0.00533024 -7.42479e-05
+ 5.5e+09Hz 0.00534732 -8.1956e-05
+ 5.6e+09Hz 0.00536459 -8.99785e-05
+ 5.7e+09Hz 0.00538203 -9.83183e-05
+ 5.8e+09Hz 0.00539964 -0.000106978
+ 5.9e+09Hz 0.00541742 -0.00011596
+ 6e+09Hz 0.00543536 -0.000125267
+ 6.1e+09Hz 0.00545346 -0.000134901
+ 6.2e+09Hz 0.0054717 -0.000144864
+ 6.3e+09Hz 0.00549008 -0.000155159
+ 6.4e+09Hz 0.00550859 -0.000165787
+ 6.5e+09Hz 0.00552723 -0.00017675
+ 6.6e+09Hz 0.005546 -0.000188049
+ 6.7e+09Hz 0.00556488 -0.000199686
+ 6.8e+09Hz 0.00558387 -0.000211663
+ 6.9e+09Hz 0.00560296 -0.00022398
+ 7e+09Hz 0.00562214 -0.000236638
+ 7.1e+09Hz 0.00564142 -0.000249639
+ 7.2e+09Hz 0.00566077 -0.000262984
+ 7.3e+09Hz 0.00568021 -0.000276673
+ 7.4e+09Hz 0.00569971 -0.000290706
+ 7.5e+09Hz 0.00571928 -0.000305084
+ 7.6e+09Hz 0.00573891 -0.000319807
+ 7.7e+09Hz 0.00575858 -0.000334876
+ 7.8e+09Hz 0.0057783 -0.00035029
+ 7.9e+09Hz 0.00579806 -0.00036605
+ 8e+09Hz 0.00581785 -0.000382155
+ 8.1e+09Hz 0.00583767 -0.000398604
+ 8.2e+09Hz 0.00585751 -0.000415398
+ 8.3e+09Hz 0.00587736 -0.000432536
+ 8.4e+09Hz 0.00589721 -0.000450016
+ 8.5e+09Hz 0.00591707 -0.000467839
+ 8.6e+09Hz 0.00593692 -0.000486003
+ 8.7e+09Hz 0.00595676 -0.000504507
+ 8.8e+09Hz 0.00597658 -0.00052335
+ 8.9e+09Hz 0.00599638 -0.000542531
+ 9e+09Hz 0.00601615 -0.000562048
+ 9.1e+09Hz 0.00603589 -0.0005819
+ 9.2e+09Hz 0.00605558 -0.000602085
+ 9.3e+09Hz 0.00607523 -0.000622601
+ 9.4e+09Hz 0.00609483 -0.000643447
+ 9.5e+09Hz 0.00611437 -0.00066462
+ 9.6e+09Hz 0.00613384 -0.000686119
+ 9.7e+09Hz 0.00615324 -0.000707941
+ 9.8e+09Hz 0.00617257 -0.000730084
+ 9.9e+09Hz 0.00619183 -0.000752546
+ 1e+10Hz 0.00621099 -0.000775324
+ 1.01e+10Hz 0.00623007 -0.000798416
+ 1.02e+10Hz 0.00624905 -0.000821819
+ 1.03e+10Hz 0.00626793 -0.000845531
+ 1.04e+10Hz 0.0062867 -0.000869548
+ 1.05e+10Hz 0.00630536 -0.000893868
+ 1.06e+10Hz 0.00632391 -0.000918487
+ 1.07e+10Hz 0.00634234 -0.000943403
+ 1.08e+10Hz 0.00636064 -0.000968612
+ 1.09e+10Hz 0.00637881 -0.000994112
+ 1.1e+10Hz 0.00639685 -0.0010199
+ 1.11e+10Hz 0.00641475 -0.00104597
+ 1.12e+10Hz 0.00643251 -0.00107232
+ 1.13e+10Hz 0.00645012 -0.00109895
+ 1.14e+10Hz 0.00646758 -0.00112585
+ 1.15e+10Hz 0.00648489 -0.00115302
+ 1.16e+10Hz 0.00650203 -0.00118045
+ 1.17e+10Hz 0.00651902 -0.00120815
+ 1.18e+10Hz 0.00653583 -0.00123611
+ 1.19e+10Hz 0.00655248 -0.00126432
+ 1.2e+10Hz 0.00656895 -0.00129278
+ 1.21e+10Hz 0.00658524 -0.00132148
+ 1.22e+10Hz 0.00660135 -0.00135043
+ 1.23e+10Hz 0.00661728 -0.00137962
+ 1.24e+10Hz 0.00663302 -0.00140904
+ 1.25e+10Hz 0.00664857 -0.00143869
+ 1.26e+10Hz 0.00666392 -0.00146857
+ 1.27e+10Hz 0.00667908 -0.00149867
+ 1.28e+10Hz 0.00669404 -0.00152899
+ 1.29e+10Hz 0.00670879 -0.00155951
+ 1.3e+10Hz 0.00672335 -0.00159025
+ 1.31e+10Hz 0.00673769 -0.00162119
+ 1.32e+10Hz 0.00675182 -0.00165234
+ 1.33e+10Hz 0.00676574 -0.00168367
+ 1.34e+10Hz 0.00677945 -0.0017152
+ 1.35e+10Hz 0.00679294 -0.00174692
+ 1.36e+10Hz 0.00680621 -0.00177882
+ 1.37e+10Hz 0.00681926 -0.00181089
+ 1.38e+10Hz 0.00683208 -0.00184314
+ 1.39e+10Hz 0.00684468 -0.00187555
+ 1.4e+10Hz 0.00685706 -0.00190813
+ 1.41e+10Hz 0.00686921 -0.00194087
+ 1.42e+10Hz 0.00688113 -0.00197377
+ 1.43e+10Hz 0.00689282 -0.00200681
+ 1.44e+10Hz 0.00690427 -0.00204001
+ 1.45e+10Hz 0.0069155 -0.00207334
+ 1.46e+10Hz 0.00692649 -0.00210681
+ 1.47e+10Hz 0.00693724 -0.00214041
+ 1.48e+10Hz 0.00694776 -0.00217414
+ 1.49e+10Hz 0.00695804 -0.00220799
+ 1.5e+10Hz 0.00696809 -0.00224196
+ 1.51e+10Hz 0.0069779 -0.00227604
+ 1.52e+10Hz 0.00698746 -0.00231024
+ 1.53e+10Hz 0.00699679 -0.00234454
+ 1.54e+10Hz 0.00700588 -0.00237894
+ 1.55e+10Hz 0.00701474 -0.00241344
+ 1.56e+10Hz 0.00702335 -0.00244802
+ 1.57e+10Hz 0.00703172 -0.0024827
+ 1.58e+10Hz 0.00703985 -0.00251746
+ 1.59e+10Hz 0.00704774 -0.0025523
+ 1.6e+10Hz 0.0070554 -0.00258721
+ 1.61e+10Hz 0.00706281 -0.00262219
+ 1.62e+10Hz 0.00706999 -0.00265724
+ 1.63e+10Hz 0.00707693 -0.00269235
+ 1.64e+10Hz 0.00708363 -0.00272752
+ 1.65e+10Hz 0.00709009 -0.00276274
+ 1.66e+10Hz 0.00709632 -0.00279801
+ 1.67e+10Hz 0.00710231 -0.00283332
+ 1.68e+10Hz 0.00710806 -0.00286868
+ 1.69e+10Hz 0.00711359 -0.00290407
+ 1.7e+10Hz 0.00711888 -0.0029395
+ 1.71e+10Hz 0.00712393 -0.00297496
+ 1.72e+10Hz 0.00712876 -0.00301044
+ 1.73e+10Hz 0.00713336 -0.00304594
+ 1.74e+10Hz 0.00713773 -0.00308147
+ 1.75e+10Hz 0.00714187 -0.003117
+ 1.76e+10Hz 0.00714579 -0.00315255
+ 1.77e+10Hz 0.00714948 -0.0031881
+ 1.78e+10Hz 0.00715295 -0.00322366
+ 1.79e+10Hz 0.00715621 -0.00325922
+ 1.8e+10Hz 0.00715924 -0.00329477
+ 1.81e+10Hz 0.00716205 -0.00333032
+ 1.82e+10Hz 0.00716465 -0.00336586
+ 1.83e+10Hz 0.00716703 -0.00340138
+ 1.84e+10Hz 0.00716921 -0.00343689
+ 1.85e+10Hz 0.00717117 -0.00347238
+ 1.86e+10Hz 0.00717293 -0.00350784
+ 1.87e+10Hz 0.00717447 -0.00354328
+ 1.88e+10Hz 0.00717582 -0.00357869
+ 1.89e+10Hz 0.00717696 -0.00361407
+ 1.9e+10Hz 0.00717791 -0.00364941
+ 1.91e+10Hz 0.00717866 -0.00368472
+ 1.92e+10Hz 0.00717921 -0.00371999
+ 1.93e+10Hz 0.00717957 -0.00375522
+ 1.94e+10Hz 0.00717974 -0.0037904
+ 1.95e+10Hz 0.00717972 -0.00382553
+ 1.96e+10Hz 0.00717951 -0.00386061
+ 1.97e+10Hz 0.00717912 -0.00389564
+ 1.98e+10Hz 0.00717856 -0.00393062
+ 1.99e+10Hz 0.00717781 -0.00396554
+ 2e+10Hz 0.00717689 -0.0040004
+ 2.01e+10Hz 0.00717579 -0.0040352
+ 2.02e+10Hz 0.00717453 -0.00406994
+ 2.03e+10Hz 0.00717309 -0.00410461
+ 2.04e+10Hz 0.00717149 -0.00413921
+ 2.05e+10Hz 0.00716973 -0.00417375
+ 2.06e+10Hz 0.00716781 -0.00420822
+ 2.07e+10Hz 0.00716573 -0.00424261
+ 2.08e+10Hz 0.0071635 -0.00427693
+ 2.09e+10Hz 0.00716111 -0.00431118
+ 2.1e+10Hz 0.00715858 -0.00434535
+ 2.11e+10Hz 0.0071559 -0.00437944
+ 2.12e+10Hz 0.00715308 -0.00441345
+ 2.13e+10Hz 0.00715011 -0.00444738
+ 2.14e+10Hz 0.00714701 -0.00448123
+ 2.15e+10Hz 0.00714377 -0.004515
+ 2.16e+10Hz 0.0071404 -0.00454868
+ 2.17e+10Hz 0.0071369 -0.00458228
+ 2.18e+10Hz 0.00713327 -0.0046158
+ 2.19e+10Hz 0.00712952 -0.00464922
+ 2.2e+10Hz 0.00712565 -0.00468256
+ 2.21e+10Hz 0.00712165 -0.00471582
+ 2.22e+10Hz 0.00711755 -0.00474898
+ 2.23e+10Hz 0.00711332 -0.00478206
+ 2.24e+10Hz 0.00710899 -0.00481504
+ 2.25e+10Hz 0.00710455 -0.00484794
+ 2.26e+10Hz 0.00710001 -0.00488074
+ 2.27e+10Hz 0.00709536 -0.00491346
+ 2.28e+10Hz 0.00709061 -0.00494608
+ 2.29e+10Hz 0.00708577 -0.00497862
+ 2.3e+10Hz 0.00708083 -0.00501106
+ 2.31e+10Hz 0.00707579 -0.00504341
+ 2.32e+10Hz 0.00707067 -0.00507567
+ 2.33e+10Hz 0.00706546 -0.00510784
+ 2.34e+10Hz 0.00706017 -0.00513992
+ 2.35e+10Hz 0.0070548 -0.00517191
+ 2.36e+10Hz 0.00704934 -0.00520381
+ 2.37e+10Hz 0.00704381 -0.00523561
+ 2.38e+10Hz 0.00703821 -0.00526733
+ 2.39e+10Hz 0.00703253 -0.00529896
+ 2.4e+10Hz 0.00702678 -0.0053305
+ 2.41e+10Hz 0.00702097 -0.00536195
+ 2.42e+10Hz 0.00701509 -0.00539332
+ 2.43e+10Hz 0.00700915 -0.00542459
+ 2.44e+10Hz 0.00700315 -0.00545578
+ 2.45e+10Hz 0.00699709 -0.00548688
+ 2.46e+10Hz 0.00699097 -0.0055179
+ 2.47e+10Hz 0.0069848 -0.00554884
+ 2.48e+10Hz 0.00697857 -0.00557969
+ 2.49e+10Hz 0.0069723 -0.00561046
+ 2.5e+10Hz 0.00696598 -0.00564114
+ 2.51e+10Hz 0.00695961 -0.00567175
+ 2.52e+10Hz 0.0069532 -0.00570228
+ 2.53e+10Hz 0.00694675 -0.00573272
+ 2.54e+10Hz 0.00694026 -0.00576309
+ 2.55e+10Hz 0.00693372 -0.00579339
+ 2.56e+10Hz 0.00692716 -0.00582361
+ 2.57e+10Hz 0.00692055 -0.00585375
+ 2.58e+10Hz 0.00691392 -0.00588382
+ 2.59e+10Hz 0.00690725 -0.00591382
+ 2.6e+10Hz 0.00690055 -0.00594375
+ 2.61e+10Hz 0.00689382 -0.00597361
+ 2.62e+10Hz 0.00688707 -0.0060034
+ 2.63e+10Hz 0.00688029 -0.00603313
+ 2.64e+10Hz 0.00687348 -0.00606279
+ 2.65e+10Hz 0.00686665 -0.00609239
+ 2.66e+10Hz 0.0068598 -0.00612192
+ 2.67e+10Hz 0.00685293 -0.00615139
+ 2.68e+10Hz 0.00684605 -0.00618081
+ 2.69e+10Hz 0.00683914 -0.00621016
+ 2.7e+10Hz 0.00683221 -0.00623947
+ 2.71e+10Hz 0.00682527 -0.00626871
+ 2.72e+10Hz 0.00681832 -0.0062979
+ 2.73e+10Hz 0.00681135 -0.00632704
+ 2.74e+10Hz 0.00680436 -0.00635613
+ 2.75e+10Hz 0.00679737 -0.00638517
+ 2.76e+10Hz 0.00679036 -0.00641417
+ 2.77e+10Hz 0.00678335 -0.00644311
+ 2.78e+10Hz 0.00677632 -0.00647202
+ 2.79e+10Hz 0.00676928 -0.00650088
+ 2.8e+10Hz 0.00676224 -0.0065297
+ 2.81e+10Hz 0.00675518 -0.00655848
+ 2.82e+10Hz 0.00674812 -0.00658722
+ 2.83e+10Hz 0.00674105 -0.00661593
+ 2.84e+10Hz 0.00673398 -0.0066446
+ 2.85e+10Hz 0.00672689 -0.00667324
+ 2.86e+10Hz 0.0067198 -0.00670184
+ 2.87e+10Hz 0.00671271 -0.00673042
+ 2.88e+10Hz 0.00670561 -0.00675897
+ 2.89e+10Hz 0.00669851 -0.00678749
+ 2.9e+10Hz 0.00669139 -0.00681599
+ 2.91e+10Hz 0.00668428 -0.00684446
+ 2.92e+10Hz 0.00667716 -0.00687291
+ 2.93e+10Hz 0.00667003 -0.00690134
+ 2.94e+10Hz 0.0066629 -0.00692975
+ 2.95e+10Hz 0.00665576 -0.00695814
+ 2.96e+10Hz 0.00664862 -0.00698652
+ 2.97e+10Hz 0.00664148 -0.00701488
+ 2.98e+10Hz 0.00663432 -0.00704322
+ 2.99e+10Hz 0.00662716 -0.00707156
+ 3e+10Hz 0.00662 -0.00709988
+ 3.01e+10Hz 0.00661283 -0.0071282
+ 3.02e+10Hz 0.00660565 -0.00715651
+ 3.03e+10Hz 0.00659846 -0.00718481
+ 3.04e+10Hz 0.00659127 -0.0072131
+ 3.05e+10Hz 0.00658407 -0.00724139
+ 3.06e+10Hz 0.00657686 -0.00726968
+ 3.07e+10Hz 0.00656964 -0.00729797
+ 3.08e+10Hz 0.00656241 -0.00732626
+ 3.09e+10Hz 0.00655517 -0.00735454
+ 3.1e+10Hz 0.00654792 -0.00738283
+ 3.11e+10Hz 0.00654066 -0.00741113
+ 3.12e+10Hz 0.00653339 -0.00743943
+ 3.13e+10Hz 0.0065261 -0.00746773
+ 3.14e+10Hz 0.0065188 -0.00749604
+ 3.15e+10Hz 0.00651149 -0.00752436
+ 3.16e+10Hz 0.00650416 -0.00755268
+ 3.17e+10Hz 0.00649682 -0.00758102
+ 3.18e+10Hz 0.00648946 -0.00760937
+ 3.19e+10Hz 0.00648208 -0.00763772
+ 3.2e+10Hz 0.00647468 -0.00766609
+ 3.21e+10Hz 0.00646726 -0.00769448
+ 3.22e+10Hz 0.00645983 -0.00772288
+ 3.23e+10Hz 0.00645237 -0.00775129
+ 3.24e+10Hz 0.00644489 -0.00777972
+ 3.25e+10Hz 0.00643738 -0.00780816
+ 3.26e+10Hz 0.00642986 -0.00783662
+ 3.27e+10Hz 0.0064223 -0.0078651
+ 3.28e+10Hz 0.00641473 -0.0078936
+ 3.29e+10Hz 0.00640712 -0.00792212
+ 3.3e+10Hz 0.00639949 -0.00795065
+ 3.31e+10Hz 0.00639182 -0.00797921
+ 3.32e+10Hz 0.00638413 -0.00800779
+ 3.33e+10Hz 0.00637641 -0.00803639
+ 3.34e+10Hz 0.00636865 -0.008065
+ 3.35e+10Hz 0.00636086 -0.00809365
+ 3.36e+10Hz 0.00635303 -0.00812231
+ 3.37e+10Hz 0.00634517 -0.008151
+ 3.38e+10Hz 0.00633728 -0.0081797
+ 3.39e+10Hz 0.00632934 -0.00820844
+ 3.4e+10Hz 0.00632137 -0.00823719
+ 3.41e+10Hz 0.00631335 -0.00826597
+ 3.42e+10Hz 0.0063053 -0.00829477
+ 3.43e+10Hz 0.0062972 -0.0083236
+ 3.44e+10Hz 0.00628906 -0.00835245
+ 3.45e+10Hz 0.00628087 -0.00838133
+ 3.46e+10Hz 0.00627264 -0.00841022
+ 3.47e+10Hz 0.00626436 -0.00843915
+ 3.48e+10Hz 0.00625603 -0.00846809
+ 3.49e+10Hz 0.00624766 -0.00849706
+ 3.5e+10Hz 0.00623923 -0.00852606
+ 3.51e+10Hz 0.00623075 -0.00855508
+ 3.52e+10Hz 0.00622222 -0.00858412
+ 3.53e+10Hz 0.00621364 -0.00861318
+ 3.54e+10Hz 0.006205 -0.00864227
+ 3.55e+10Hz 0.00619631 -0.00867138
+ 3.56e+10Hz 0.00618756 -0.00870052
+ 3.57e+10Hz 0.00617875 -0.00872968
+ 3.58e+10Hz 0.00616989 -0.00875885
+ 3.59e+10Hz 0.00616096 -0.00878805
+ 3.6e+10Hz 0.00615198 -0.00881728
+ 3.61e+10Hz 0.00614293 -0.00884652
+ 3.62e+10Hz 0.00613382 -0.00887578
+ 3.63e+10Hz 0.00612464 -0.00890507
+ 3.64e+10Hz 0.00611541 -0.00893437
+ 3.65e+10Hz 0.0061061 -0.00896369
+ 3.66e+10Hz 0.00609673 -0.00899303
+ 3.67e+10Hz 0.00608729 -0.00902239
+ 3.68e+10Hz 0.00607778 -0.00905177
+ 3.69e+10Hz 0.00606821 -0.00908116
+ 3.7e+10Hz 0.00605856 -0.00911057
+ 3.71e+10Hz 0.00604885 -0.00913999
+ 3.72e+10Hz 0.00603906 -0.00916943
+ 3.73e+10Hz 0.0060292 -0.00919888
+ 3.74e+10Hz 0.00601926 -0.00922835
+ 3.75e+10Hz 0.00600926 -0.00925783
+ 3.76e+10Hz 0.00599917 -0.00928732
+ 3.77e+10Hz 0.00598901 -0.00931682
+ 3.78e+10Hz 0.00597878 -0.00934633
+ 3.79e+10Hz 0.00596847 -0.00937585
+ 3.8e+10Hz 0.00595808 -0.00940538
+ 3.81e+10Hz 0.00594761 -0.00943492
+ 3.82e+10Hz 0.00593707 -0.00946447
+ 3.83e+10Hz 0.00592644 -0.00949402
+ 3.84e+10Hz 0.00591574 -0.00952358
+ 3.85e+10Hz 0.00590495 -0.00955314
+ 3.86e+10Hz 0.00589408 -0.0095827
+ 3.87e+10Hz 0.00588314 -0.00961227
+ 3.88e+10Hz 0.00587211 -0.00964184
+ 3.89e+10Hz 0.00586099 -0.00967141
+ 3.9e+10Hz 0.0058498 -0.00970098
+ 3.91e+10Hz 0.00583852 -0.00973055
+ 3.92e+10Hz 0.00582716 -0.00976011
+ 3.93e+10Hz 0.00581571 -0.00978968
+ 3.94e+10Hz 0.00580418 -0.00981924
+ 3.95e+10Hz 0.00579257 -0.00984879
+ 3.96e+10Hz 0.00578087 -0.00987834
+ 3.97e+10Hz 0.00576908 -0.00990788
+ 3.98e+10Hz 0.00575722 -0.00993741
+ 3.99e+10Hz 0.00574526 -0.00996694
+ 4e+10Hz 0.00573322 -0.00999645
+ 4.01e+10Hz 0.00572109 -0.010026
+ 4.02e+10Hz 0.00570888 -0.0100554
+ 4.03e+10Hz 0.00569658 -0.0100849
+ 4.04e+10Hz 0.00568419 -0.0101144
+ 4.05e+10Hz 0.00567172 -0.0101438
+ 4.06e+10Hz 0.00565916 -0.0101733
+ 4.07e+10Hz 0.00564652 -0.0102027
+ 4.08e+10Hz 0.00563379 -0.0102321
+ 4.09e+10Hz 0.00562097 -0.0102615
+ 4.1e+10Hz 0.00560807 -0.0102908
+ 4.11e+10Hz 0.00559508 -0.0103202
+ 4.12e+10Hz 0.00558201 -0.0103495
+ 4.13e+10Hz 0.00556884 -0.0103788
+ 4.14e+10Hz 0.0055556 -0.010408
+ 4.15e+10Hz 0.00554227 -0.0104373
+ 4.16e+10Hz 0.00552885 -0.0104665
+ 4.17e+10Hz 0.00551534 -0.0104957
+ 4.18e+10Hz 0.00550176 -0.0105248
+ 4.19e+10Hz 0.00548809 -0.010554
+ 4.2e+10Hz 0.00547433 -0.0105831
+ 4.21e+10Hz 0.00546049 -0.0106121
+ 4.22e+10Hz 0.00544656 -0.0106412
+ 4.23e+10Hz 0.00543256 -0.0106702
+ 4.24e+10Hz 0.00541846 -0.0106992
+ 4.25e+10Hz 0.00540429 -0.0107281
+ 4.26e+10Hz 0.00539004 -0.010757
+ 4.27e+10Hz 0.0053757 -0.0107859
+ 4.28e+10Hz 0.00536128 -0.0108147
+ 4.29e+10Hz 0.00534678 -0.0108435
+ 4.3e+10Hz 0.0053322 -0.0108723
+ 4.31e+10Hz 0.00531754 -0.010901
+ 4.32e+10Hz 0.0053028 -0.0109297
+ 4.33e+10Hz 0.00528798 -0.0109583
+ 4.34e+10Hz 0.00527308 -0.0109869
+ 4.35e+10Hz 0.00525811 -0.0110154
+ 4.36e+10Hz 0.00524306 -0.0110439
+ 4.37e+10Hz 0.00522793 -0.0110724
+ 4.38e+10Hz 0.00521272 -0.0111008
+ 4.39e+10Hz 0.00519744 -0.0111292
+ 4.4e+10Hz 0.00518209 -0.0111575
+ 4.41e+10Hz 0.00516666 -0.0111858
+ 4.42e+10Hz 0.00515116 -0.011214
+ 4.43e+10Hz 0.00513558 -0.0112422
+ 4.44e+10Hz 0.00511993 -0.0112703
+ 4.45e+10Hz 0.00510421 -0.0112984
+ 4.46e+10Hz 0.00508842 -0.0113265
+ 4.47e+10Hz 0.00507256 -0.0113545
+ 4.48e+10Hz 0.00505663 -0.0113824
+ 4.49e+10Hz 0.00504063 -0.0114103
+ 4.5e+10Hz 0.00502457 -0.0114381
+ 4.51e+10Hz 0.00500843 -0.0114659
+ 4.52e+10Hz 0.00499223 -0.0114936
+ 4.53e+10Hz 0.00497597 -0.0115213
+ 4.54e+10Hz 0.00495964 -0.0115489
+ 4.55e+10Hz 0.00494324 -0.0115765
+ 4.56e+10Hz 0.00492678 -0.011604
+ 4.57e+10Hz 0.00491026 -0.0116314
+ 4.58e+10Hz 0.00489368 -0.0116588
+ 4.59e+10Hz 0.00487703 -0.0116862
+ 4.6e+10Hz 0.00486033 -0.0117135
+ 4.61e+10Hz 0.00484356 -0.0117407
+ 4.62e+10Hz 0.00482674 -0.0117679
+ 4.63e+10Hz 0.00480986 -0.011795
+ 4.64e+10Hz 0.00479292 -0.011822
+ 4.65e+10Hz 0.00477592 -0.011849
+ 4.66e+10Hz 0.00475887 -0.011876
+ 4.67e+10Hz 0.00474177 -0.0119029
+ 4.68e+10Hz 0.00472461 -0.0119297
+ 4.69e+10Hz 0.0047074 -0.0119565
+ 4.7e+10Hz 0.00469013 -0.0119832
+ 4.71e+10Hz 0.00467281 -0.0120098
+ 4.72e+10Hz 0.00465544 -0.0120364
+ 4.73e+10Hz 0.00463803 -0.012063
+ 4.74e+10Hz 0.00462056 -0.0120895
+ 4.75e+10Hz 0.00460304 -0.0121159
+ 4.76e+10Hz 0.00458548 -0.0121422
+ 4.77e+10Hz 0.00456787 -0.0121685
+ 4.78e+10Hz 0.00455021 -0.0121948
+ 4.79e+10Hz 0.00453251 -0.012221
+ 4.8e+10Hz 0.00451476 -0.0122471
+ 4.81e+10Hz 0.00449697 -0.0122732
+ 4.82e+10Hz 0.00447914 -0.0122992
+ 4.83e+10Hz 0.00446126 -0.0123251
+ 4.84e+10Hz 0.00444334 -0.012351
+ 4.85e+10Hz 0.00442538 -0.0123769
+ 4.86e+10Hz 0.00440738 -0.0124027
+ 4.87e+10Hz 0.00438934 -0.0124284
+ 4.88e+10Hz 0.00437126 -0.0124541
+ 4.89e+10Hz 0.00435314 -0.0124797
+ 4.9e+10Hz 0.00433498 -0.0125052
+ 4.91e+10Hz 0.00431679 -0.0125307
+ 4.92e+10Hz 0.00429856 -0.0125561
+ 4.93e+10Hz 0.0042803 -0.0125815
+ 4.94e+10Hz 0.004262 -0.0126068
+ 4.95e+10Hz 0.00424366 -0.0126321
+ 4.96e+10Hz 0.00422529 -0.0126573
+ 4.97e+10Hz 0.00420689 -0.0126825
+ 4.98e+10Hz 0.00418846 -0.0127076
+ 4.99e+10Hz 0.00416999 -0.0127326
+ 5e+10Hz 0.00415149 -0.0127576
+ 5.01e+10Hz 0.00413296 -0.0127826
+ 5.02e+10Hz 0.0041144 -0.0128074
+ 5.03e+10Hz 0.00409581 -0.0128323
+ 5.04e+10Hz 0.00407719 -0.0128571
+ 5.05e+10Hz 0.00405854 -0.0128818
+ 5.06e+10Hz 0.00403987 -0.0129065
+ 5.07e+10Hz 0.00402116 -0.0129311
+ 5.08e+10Hz 0.00400243 -0.0129556
+ 5.09e+10Hz 0.00398367 -0.0129802
+ 5.1e+10Hz 0.00396488 -0.0130046
+ 5.11e+10Hz 0.00394607 -0.013029
+ 5.12e+10Hz 0.00392723 -0.0130534
+ 5.13e+10Hz 0.00390836 -0.0130777
+ 5.14e+10Hz 0.00388947 -0.013102
+ 5.15e+10Hz 0.00387056 -0.0131262
+ 5.16e+10Hz 0.00385162 -0.0131504
+ 5.17e+10Hz 0.00383265 -0.0131745
+ 5.18e+10Hz 0.00381367 -0.0131986
+ 5.19e+10Hz 0.00379466 -0.0132226
+ 5.2e+10Hz 0.00377562 -0.0132466
+ 5.21e+10Hz 0.00375656 -0.0132705
+ 5.22e+10Hz 0.00373748 -0.0132944
+ 5.23e+10Hz 0.00371838 -0.0133183
+ 5.24e+10Hz 0.00369925 -0.0133421
+ 5.25e+10Hz 0.00368011 -0.0133658
+ 5.26e+10Hz 0.00366094 -0.0133896
+ 5.27e+10Hz 0.00364175 -0.0134132
+ 5.28e+10Hz 0.00362253 -0.0134369
+ 5.29e+10Hz 0.0036033 -0.0134604
+ 5.3e+10Hz 0.00358404 -0.013484
+ 5.31e+10Hz 0.00356477 -0.0135075
+ 5.32e+10Hz 0.00354547 -0.013531
+ 5.33e+10Hz 0.00352615 -0.0135544
+ 5.34e+10Hz 0.00350681 -0.0135778
+ 5.35e+10Hz 0.00348745 -0.0136011
+ 5.36e+10Hz 0.00346807 -0.0136244
+ 5.37e+10Hz 0.00344867 -0.0136477
+ 5.38e+10Hz 0.00342925 -0.0136709
+ 5.39e+10Hz 0.0034098 -0.0136941
+ 5.4e+10Hz 0.00339034 -0.0137172
+ 5.41e+10Hz 0.00337085 -0.0137403
+ 5.42e+10Hz 0.00335135 -0.0137634
+ 5.43e+10Hz 0.00333182 -0.0137865
+ 5.44e+10Hz 0.00331228 -0.0138095
+ 5.45e+10Hz 0.00329271 -0.0138324
+ 5.46e+10Hz 0.00327312 -0.0138554
+ 5.47e+10Hz 0.00325351 -0.0138783
+ 5.48e+10Hz 0.00323388 -0.0139011
+ 5.49e+10Hz 0.00321423 -0.013924
+ 5.5e+10Hz 0.00319455 -0.0139468
+ 5.51e+10Hz 0.00317486 -0.0139695
+ 5.52e+10Hz 0.00315514 -0.0139923
+ 5.53e+10Hz 0.0031354 -0.014015
+ 5.54e+10Hz 0.00311564 -0.0140376
+ 5.55e+10Hz 0.00309586 -0.0140603
+ 5.56e+10Hz 0.00307606 -0.0140829
+ 5.57e+10Hz 0.00305623 -0.0141055
+ 5.58e+10Hz 0.00303638 -0.014128
+ 5.59e+10Hz 0.00301651 -0.0141505
+ 5.6e+10Hz 0.00299662 -0.014173
+ 5.61e+10Hz 0.0029767 -0.0141955
+ 5.62e+10Hz 0.00295676 -0.0142179
+ 5.63e+10Hz 0.00293679 -0.0142403
+ 5.64e+10Hz 0.0029168 -0.0142626
+ 5.65e+10Hz 0.00289679 -0.014285
+ 5.66e+10Hz 0.00287675 -0.0143073
+ 5.67e+10Hz 0.00285669 -0.0143296
+ 5.68e+10Hz 0.0028366 -0.0143518
+ 5.69e+10Hz 0.00281649 -0.014374
+ 5.7e+10Hz 0.00279635 -0.0143962
+ 5.71e+10Hz 0.00277619 -0.0144184
+ 5.72e+10Hz 0.002756 -0.0144406
+ 5.73e+10Hz 0.00273579 -0.0144627
+ 5.74e+10Hz 0.00271554 -0.0144848
+ 5.75e+10Hz 0.00269527 -0.0145068
+ 5.76e+10Hz 0.00267498 -0.0145288
+ 5.77e+10Hz 0.00265465 -0.0145509
+ 5.78e+10Hz 0.0026343 -0.0145728
+ 5.79e+10Hz 0.00261392 -0.0145948
+ 5.8e+10Hz 0.00259351 -0.0146167
+ 5.81e+10Hz 0.00257308 -0.0146386
+ 5.82e+10Hz 0.00255261 -0.0146605
+ 5.83e+10Hz 0.00253212 -0.0146823
+ 5.84e+10Hz 0.00251159 -0.0147042
+ 5.85e+10Hz 0.00249104 -0.014726
+ 5.86e+10Hz 0.00247045 -0.0147477
+ 5.87e+10Hz 0.00244984 -0.0147695
+ 5.88e+10Hz 0.00242919 -0.0147912
+ 5.89e+10Hz 0.00240851 -0.0148129
+ 5.9e+10Hz 0.00238781 -0.0148345
+ 5.91e+10Hz 0.00236707 -0.0148562
+ 5.92e+10Hz 0.00234629 -0.0148778
+ 5.93e+10Hz 0.00232549 -0.0148994
+ 5.94e+10Hz 0.00230465 -0.0149209
+ 5.95e+10Hz 0.00228378 -0.0149425
+ 5.96e+10Hz 0.00226287 -0.014964
+ 5.97e+10Hz 0.00224194 -0.0149854
+ 5.98e+10Hz 0.00222096 -0.0150069
+ 5.99e+10Hz 0.00219996 -0.0150283
+ 6e+10Hz 0.00217892 -0.0150497
+ 6.01e+10Hz 0.00215784 -0.0150711
+ 6.02e+10Hz 0.00213673 -0.0150924
+ 6.03e+10Hz 0.00211559 -0.0151137
+ 6.04e+10Hz 0.00209441 -0.015135
+ 6.05e+10Hz 0.00207319 -0.0151563
+ 6.06e+10Hz 0.00205194 -0.0151775
+ 6.07e+10Hz 0.00203065 -0.0151987
+ 6.08e+10Hz 0.00200932 -0.0152199
+ 6.09e+10Hz 0.00198796 -0.015241
+ 6.1e+10Hz 0.00196656 -0.0152621
+ 6.11e+10Hz 0.00194512 -0.0152832
+ 6.12e+10Hz 0.00192364 -0.0153043
+ 6.13e+10Hz 0.00190213 -0.0153253
+ 6.14e+10Hz 0.00188058 -0.0153463
+ 6.15e+10Hz 0.00185899 -0.0153672
+ 6.16e+10Hz 0.00183736 -0.0153882
+ 6.17e+10Hz 0.0018157 -0.0154091
+ 6.18e+10Hz 0.00179399 -0.0154299
+ 6.19e+10Hz 0.00177225 -0.0154508
+ 6.2e+10Hz 0.00175047 -0.0154716
+ 6.21e+10Hz 0.00172865 -0.0154924
+ 6.22e+10Hz 0.00170678 -0.0155131
+ 6.23e+10Hz 0.00168488 -0.0155338
+ 6.24e+10Hz 0.00166294 -0.0155545
+ 6.25e+10Hz 0.00164096 -0.0155751
+ 6.26e+10Hz 0.00161894 -0.0155957
+ 6.27e+10Hz 0.00159688 -0.0156163
+ 6.28e+10Hz 0.00157478 -0.0156368
+ 6.29e+10Hz 0.00155264 -0.0156574
+ 6.3e+10Hz 0.00153046 -0.0156778
+ 6.31e+10Hz 0.00150824 -0.0156983
+ 6.32e+10Hz 0.00148597 -0.0157187
+ 6.33e+10Hz 0.00146367 -0.015739
+ 6.34e+10Hz 0.00144133 -0.0157593
+ 6.35e+10Hz 0.00141894 -0.0157796
+ 6.36e+10Hz 0.00139652 -0.0157999
+ 6.37e+10Hz 0.00137405 -0.0158201
+ 6.38e+10Hz 0.00135155 -0.0158403
+ 6.39e+10Hz 0.001329 -0.0158604
+ 6.4e+10Hz 0.00130641 -0.0158805
+ 6.41e+10Hz 0.00128378 -0.0159006
+ 6.42e+10Hz 0.00126111 -0.0159206
+ 6.43e+10Hz 0.00123841 -0.0159406
+ 6.44e+10Hz 0.00121566 -0.0159605
+ 6.45e+10Hz 0.00119286 -0.0159804
+ 6.46e+10Hz 0.00117003 -0.0160003
+ 6.47e+10Hz 0.00114716 -0.0160201
+ 6.48e+10Hz 0.00112425 -0.0160399
+ 6.49e+10Hz 0.0011013 -0.0160596
+ 6.5e+10Hz 0.0010783 -0.0160793
+ 6.51e+10Hz 0.00105527 -0.0160989
+ 6.52e+10Hz 0.0010322 -0.0161185
+ 6.53e+10Hz 0.00100909 -0.0161381
+ 6.54e+10Hz 0.000985935 -0.0161576
+ 6.55e+10Hz 0.000962743 -0.0161771
+ 6.56e+10Hz 0.000939512 -0.0161965
+ 6.57e+10Hz 0.000916242 -0.0162159
+ 6.58e+10Hz 0.000892933 -0.0162352
+ 6.59e+10Hz 0.000869584 -0.0162545
+ 6.6e+10Hz 0.000846197 -0.0162737
+ 6.61e+10Hz 0.000822772 -0.0162929
+ 6.62e+10Hz 0.000799308 -0.0163121
+ 6.63e+10Hz 0.000775805 -0.0163312
+ 6.64e+10Hz 0.000752265 -0.0163502
+ 6.65e+10Hz 0.000728688 -0.0163693
+ 6.66e+10Hz 0.000705072 -0.0163882
+ 6.67e+10Hz 0.00068142 -0.0164071
+ 6.68e+10Hz 0.00065773 -0.016426
+ 6.69e+10Hz 0.000634004 -0.0164448
+ 6.7e+10Hz 0.000610241 -0.0164636
+ 6.71e+10Hz 0.000586442 -0.0164823
+ 6.72e+10Hz 0.000562607 -0.0165009
+ 6.73e+10Hz 0.000538736 -0.0165195
+ 6.74e+10Hz 0.00051483 -0.0165381
+ 6.75e+10Hz 0.000490889 -0.0165566
+ 6.76e+10Hz 0.000466913 -0.0165751
+ 6.77e+10Hz 0.000442902 -0.0165935
+ 6.78e+10Hz 0.000418857 -0.0166118
+ 6.79e+10Hz 0.000394778 -0.0166301
+ 6.8e+10Hz 0.000370666 -0.0166484
+ 6.81e+10Hz 0.00034652 -0.0166666
+ 6.82e+10Hz 0.000322341 -0.0166847
+ 6.83e+10Hz 0.00029813 -0.0167028
+ 6.84e+10Hz 0.000273886 -0.0167209
+ 6.85e+10Hz 0.000249611 -0.0167388
+ 6.86e+10Hz 0.000225304 -0.0167568
+ 6.87e+10Hz 0.000200965 -0.0167747
+ 6.88e+10Hz 0.000176596 -0.0167925
+ 6.89e+10Hz 0.000152196 -0.0168102
+ 6.9e+10Hz 0.000127766 -0.016828
+ 6.91e+10Hz 0.000103306 -0.0168456
+ 6.92e+10Hz 7.88161e-05 -0.0168632
+ 6.93e+10Hz 5.42975e-05 -0.0168808
+ 6.94e+10Hz 2.97502e-05 -0.0168983
+ 6.95e+10Hz 5.17445e-06 -0.0169157
+ 6.96e+10Hz -1.94293e-05 -0.0169331
+ 6.97e+10Hz -4.40606e-05 -0.0169504
+ 6.98e+10Hz -6.87192e-05 -0.0169677
+ 6.99e+10Hz -9.34047e-05 -0.0169849
+ 7e+10Hz -0.000118117 -0.0170021
+ 7.01e+10Hz -0.000142855 -0.0170192
+ 7.02e+10Hz -0.000167619 -0.0170362
+ 7.03e+10Hz -0.000192408 -0.0170532
+ 7.04e+10Hz -0.000217222 -0.0170701
+ 7.05e+10Hz -0.00024206 -0.017087
+ 7.06e+10Hz -0.000266923 -0.0171039
+ 7.07e+10Hz -0.00029181 -0.0171206
+ 7.08e+10Hz -0.00031672 -0.0171373
+ 7.09e+10Hz -0.000341654 -0.017154
+ 7.1e+10Hz -0.000366609 -0.0171706
+ 7.11e+10Hz -0.000391588 -0.0171871
+ 7.12e+10Hz -0.000416588 -0.0172036
+ 7.13e+10Hz -0.000441609 -0.01722
+ 7.14e+10Hz -0.000466652 -0.0172364
+ 7.15e+10Hz -0.000491716 -0.0172527
+ 7.16e+10Hz -0.0005168 -0.017269
+ 7.17e+10Hz -0.000541904 -0.0172852
+ 7.18e+10Hz -0.000567028 -0.0173013
+ 7.19e+10Hz -0.000592171 -0.0173174
+ 7.2e+10Hz -0.000617333 -0.0173335
+ 7.21e+10Hz -0.000642514 -0.0173494
+ 7.22e+10Hz -0.000667713 -0.0173654
+ 7.23e+10Hz -0.000692929 -0.0173812
+ 7.24e+10Hz -0.000718164 -0.017397
+ 7.25e+10Hz -0.000743415 -0.0174128
+ 7.26e+10Hz -0.000768684 -0.0174285
+ 7.27e+10Hz -0.000793969 -0.0174441
+ 7.28e+10Hz -0.00081927 -0.0174597
+ 7.29e+10Hz -0.000844587 -0.0174752
+ 7.3e+10Hz -0.000869919 -0.0174907
+ 7.31e+10Hz -0.000895267 -0.0175061
+ 7.32e+10Hz -0.000920629 -0.0175215
+ 7.33e+10Hz -0.000946006 -0.0175368
+ 7.34e+10Hz -0.000971398 -0.017552
+ 7.35e+10Hz -0.000996803 -0.0175672
+ 7.36e+10Hz -0.00102222 -0.0175824
+ 7.37e+10Hz -0.00104765 -0.0175975
+ 7.38e+10Hz -0.0010731 -0.0176125
+ 7.39e+10Hz -0.00109856 -0.0176275
+ 7.4e+10Hz -0.00112403 -0.0176424
+ 7.41e+10Hz -0.00114951 -0.0176573
+ 7.42e+10Hz -0.00117501 -0.0176721
+ 7.43e+10Hz -0.00120051 -0.0176869
+ 7.44e+10Hz -0.00122603 -0.0177016
+ 7.45e+10Hz -0.00125156 -0.0177162
+ 7.46e+10Hz -0.0012771 -0.0177308
+ 7.47e+10Hz -0.00130265 -0.0177454
+ 7.48e+10Hz -0.00132821 -0.0177599
+ 7.49e+10Hz -0.00135379 -0.0177743
+ 7.5e+10Hz -0.00137937 -0.0177887
+ 7.51e+10Hz -0.00140496 -0.0178031
+ 7.52e+10Hz -0.00143056 -0.0178174
+ 7.53e+10Hz -0.00145617 -0.0178316
+ 7.54e+10Hz -0.00148179 -0.0178458
+ 7.55e+10Hz -0.00150742 -0.0178599
+ 7.56e+10Hz -0.00153306 -0.017874
+ 7.57e+10Hz -0.00155871 -0.0178881
+ 7.58e+10Hz -0.00158436 -0.0179021
+ 7.59e+10Hz -0.00161003 -0.017916
+ 7.6e+10Hz -0.0016357 -0.0179299
+ 7.61e+10Hz -0.00166138 -0.0179437
+ 7.62e+10Hz -0.00168707 -0.0179575
+ 7.63e+10Hz -0.00171277 -0.0179712
+ 7.64e+10Hz -0.00173847 -0.0179849
+ 7.65e+10Hz -0.00176418 -0.0179986
+ 7.66e+10Hz -0.0017899 -0.0180121
+ 7.67e+10Hz -0.00181563 -0.0180257
+ 7.68e+10Hz -0.00184136 -0.0180392
+ 7.69e+10Hz -0.0018671 -0.0180526
+ 7.7e+10Hz -0.00189285 -0.018066
+ 7.71e+10Hz -0.00191861 -0.0180794
+ 7.72e+10Hz -0.00194437 -0.0180927
+ 7.73e+10Hz -0.00197014 -0.0181059
+ 7.74e+10Hz -0.00199592 -0.0181191
+ 7.75e+10Hz -0.0020217 -0.0181323
+ 7.76e+10Hz -0.00204749 -0.0181454
+ 7.77e+10Hz -0.00207328 -0.0181585
+ 7.78e+10Hz -0.00209909 -0.0181715
+ 7.79e+10Hz -0.0021249 -0.0181845
+ 7.8e+10Hz -0.00215071 -0.0181974
+ 7.81e+10Hz -0.00217654 -0.0182103
+ 7.82e+10Hz -0.00220237 -0.0182231
+ 7.83e+10Hz -0.0022282 -0.0182359
+ 7.84e+10Hz -0.00225405 -0.0182487
+ 7.85e+10Hz -0.0022799 -0.0182614
+ 7.86e+10Hz -0.00230575 -0.018274
+ 7.87e+10Hz -0.00233162 -0.0182867
+ 7.88e+10Hz -0.00235749 -0.0182992
+ 7.89e+10Hz -0.00238336 -0.0183118
+ 7.9e+10Hz -0.00240925 -0.0183242
+ 7.91e+10Hz -0.00243514 -0.0183367
+ 7.92e+10Hz -0.00246103 -0.0183491
+ 7.93e+10Hz -0.00248694 -0.0183614
+ 7.94e+10Hz -0.00251285 -0.0183737
+ 7.95e+10Hz -0.00253876 -0.018386
+ 7.96e+10Hz -0.00256469 -0.0183982
+ 7.97e+10Hz -0.00259062 -0.0184104
+ 7.98e+10Hz -0.00261656 -0.0184226
+ 7.99e+10Hz -0.00264251 -0.0184347
+ 8e+10Hz -0.00266846 -0.0184467
+ 8.01e+10Hz -0.00269442 -0.0184587
+ 8.02e+10Hz -0.00272039 -0.0184707
+ 8.03e+10Hz -0.00274637 -0.0184826
+ 8.04e+10Hz -0.00277235 -0.0184945
+ 8.05e+10Hz -0.00279834 -0.0185064
+ 8.06e+10Hz -0.00282434 -0.0185182
+ 8.07e+10Hz -0.00285035 -0.0185299
+ 8.08e+10Hz -0.00287637 -0.0185417
+ 8.09e+10Hz -0.00290239 -0.0185534
+ 8.1e+10Hz -0.00292842 -0.018565
+ 8.11e+10Hz -0.00295446 -0.0185766
+ 8.12e+10Hz -0.00298051 -0.0185882
+ 8.13e+10Hz -0.00300657 -0.0185997
+ 8.14e+10Hz -0.00303264 -0.0186111
+ 8.15e+10Hz -0.00305872 -0.0186226
+ 8.16e+10Hz -0.0030848 -0.018634
+ 8.17e+10Hz -0.00311089 -0.0186453
+ 8.18e+10Hz -0.003137 -0.0186567
+ 8.19e+10Hz -0.00316311 -0.0186679
+ 8.2e+10Hz -0.00318923 -0.0186792
+ 8.21e+10Hz -0.00321537 -0.0186904
+ 8.22e+10Hz -0.00324151 -0.0187015
+ 8.23e+10Hz -0.00326766 -0.0187126
+ 8.24e+10Hz -0.00329382 -0.0187237
+ 8.25e+10Hz -0.00332 -0.0187347
+ 8.26e+10Hz -0.00334618 -0.0187457
+ 8.27e+10Hz -0.00337237 -0.0187567
+ 8.28e+10Hz -0.00339858 -0.0187676
+ 8.29e+10Hz -0.00342479 -0.0187784
+ 8.3e+10Hz -0.00345102 -0.0187893
+ 8.31e+10Hz -0.00347725 -0.0188001
+ 8.32e+10Hz -0.0035035 -0.0188108
+ 8.33e+10Hz -0.00352976 -0.0188215
+ 8.34e+10Hz -0.00355603 -0.0188322
+ 8.35e+10Hz -0.00358231 -0.0188428
+ 8.36e+10Hz -0.00360861 -0.0188534
+ 8.37e+10Hz -0.00363491 -0.0188639
+ 8.38e+10Hz -0.00366123 -0.0188744
+ 8.39e+10Hz -0.00368756 -0.0188849
+ 8.4e+10Hz -0.0037139 -0.0188953
+ 8.41e+10Hz -0.00374026 -0.0189057